Opal RTDS Implementation/StateEstimator_21_PMUs/models/System_20220515/RTS96_psse_stable.raw
0,   100.00,  32, 0, 1, 60.00     / PSS(R)E 32 RAW created by rawd32  FRI, MAY 26 2017  14:51
PSS(R)E PROGRAM APPLICATION GUIDE EXAMPLE
BASE CASE INCLUDING SEQUENCE DATA
   101,'ABEL        ', 138.0000,2,  11,  11,   1,1.03500,  -7.1756
   102,'ADAMS       ', 138.0000,2,  11,  12,   1,1.03500,  -7.2851
   103,'ADLER       ', 138.0000,1,  11,  11,   1,0.97277,  -5.0111
   104,'AGRICOLA    ', 138.0000,1,  11,  11,   1,0.99006,  -9.6613
   105,'AIKEN       ', 138.0000,1,  11,  11,   1,1.02671,  -9.9424
   106,'ALBER       ', 138.0000,1,  11,  12,   1,1.07710, -12.9218
   107,'ALDER       ', 138.0000,2,  11,  12,   1,1.02500,  -7.2709
   108,'ALGER       ', 138.0000,1,  11,  12,   1,0.99323, -11.0315
   109,'ALI         ', 138.0000,1,  11,  13,   1,0.98753,  -7.3791
   110,'ALLEN       ', 138.0000,1,  11,  13,   1,1.04505,  -9.5841
   111,'ANNA        ', 230.0000,1,  11,  13,   1,0.99997,  -2.8293
   112,'ARCHER      ', 230.0000,1,  11,  13,   1,1.01282,  -1.4709
   113,'ARNE        ', 230.0000,3,  12,  14,   1,1.02000,   0.0000
   114,'ARNOLD      ', 230.0000,2,  12,  16,   1,0.98000,   0.5792
   115,'ARTHUR      ', 230.0000,2,  12,  16,   1,1.01400,  12.5981
   116,'ASSER       ', 230.0000,2,  12,  16,   1,1.01700,  11.6930
   117,'ASTON       ', 230.0000,1,  12,  17,   1,1.03828,  16.0087
   118,'ASTOR       ', 230.0000,2,  12,  17,   1,1.05000,  17.2363
   119,'ATTAR       ', 230.0000,1,  12,  15,   1,1.02301,  10.0317
   120,'ATTILA      ', 230.0000,1,  12,  15,   1,1.03824,  10.5375
   121,'ATTLEE      ', 230.0000,2,  12,  17,   1,1.05000,  17.9834
   122,'AUBREY      ', 230.0000,2,  12,  17,   1,1.05000,  23.7205
   123,'AUSTEN      ', 230.0000,2,  12,  15,   1,1.05000,  11.5343
   124,'AVERY       ', 230.0000,1,  12,  16,   1,0.98100,   6.0942
   201,'BACH        ', 138.0000,2,  21,  21,   1,1.03500,  -7.2915
   202,'BACON       ', 138.0000,2,  21,  22,   1,1.03500,  -7.3644
   203,'BAFFIN      ', 138.0000,1,  21,  21,   1,0.98917,  -6.5926
   204,'BAILEY      ', 138.0000,1,  21,  21,   1,0.99252,  -9.6517
   205,'BAIN        ', 138.0000,1,  21,  21,   1,1.02703,  -9.8384
   206,'BAJER       ', 138.0000,1,  21,  22,   1,1.07762, -12.6881
   207,'BAKER       ', 138.0000,2,  21,  22,   1,1.02500,  -7.1448
   208,'BALCH       ', 138.0000,1,  21,  22,   1,0.99433, -10.8671
   209,'BALZAC      ', 138.0000,1,  21,  23,   1,0.99190,  -7.3141
   210,'BANKS       ', 138.0000,1,  21,  23,   1,1.04555,  -9.2560
   211,'BARDEEN     ', 230.0000,1,  21,  23,   1,1.00064,  -2.6085
   212,'BARKLA      ', 230.0000,1,  21,  23,   1,1.01261,  -0.6222
   213,'BARLOW      ', 230.0000,2,  22,  24,   1,1.02000,   1.6398
   214,'BARRY       ', 230.0000,2,  22,  26,   1,0.98000,  -0.4458
   215,'BARTON      ', 230.0000,2,  22,  26,   1,1.01400,   8.5161
   216,'BASOV       ', 230.0000,2,  22,  26,   1,1.01700,   8.8918
   217,'BATES       ', 230.0000,1,  22,  27,   1,1.04037,  12.6229
   218,'BAYLE       ', 230.0000,2,  22,  27,   1,1.05000,  13.7730
   219,'BEDE        ', 230.0000,1,  22,  25,   1,1.02271,   8.7848
   220,'BEETHOVEN   ', 230.0000,1,  22,  25,   1,1.03767,  10.6152
   221,'BEHRING     ', 230.0000,2,  22,  27,   1,1.05000,  14.4362
   222,'BELL        ', 230.0000,2,  22,  27,   1,1.05000,  20.2363
   223,'BLOCH       ', 230.0000,2,  22,  25,   1,1.05000,  12.3229
   224,'BORDET      ', 230.0000,1,  22,  26,   1,0.99117,   2.8523
   301,'CABELL      ', 138.0000,2,  31,  31,   1,1.03500,  -1.8735
   302,'CABOT       ', 138.0000,2,  31,  32,   1,1.03500,  -1.9631
   303,'CAESAR      ', 138.0000,1,  31,  31,   1,0.97443,  -0.4042
   304,'CAINE       ', 138.0000,1,  31,  31,   1,0.99055,  -4.2868
   305,'CALVIN      ', 138.0000,1,  31,  31,   1,1.02686,  -4.5152
   306,'CAMUS       ', 138.0000,1,  31,  32,   1,1.07733,  -7.4212
   307,'CAREW       ', 138.0000,2,  31,  32,   1,1.02500,  -1.8927
   308,'CARREL      ', 138.0000,1,  31,  32,   1,0.99349,  -5.6056
   309,'CARTER      ', 138.0000,1,  31,  33,   1,0.98840,  -1.9637
   310,'CARUSO      ', 138.0000,1,  31,  33,   1,1.04526,  -4.0292
   311,'CARY        ', 230.0000,1,  31,  33,   1,0.99999,   2.7296
   312,'CAXTON      ', 230.0000,1,  31,  33,   1,1.01296,   4.3353
   313,'CECIL       ', 230.0000,2,  32,  34,   1,1.02000,   6.5807
   314,'CHAIN       ', 230.0000,2,  32,  36,   1,0.98000,   5.2886
   315,'CHASE       ', 230.0000,2,  32,  36,   1,1.01400,  15.8459
   316,'CHIFA       ', 230.0000,2,  32,  36,   1,1.01700,  15.1924
   317,'CHUHSI      ', 230.0000,1,  32,  37,   1,1.03883,  18.6489
   318,'CLARK       ', 230.0000,2,  32,  37,   1,1.05000,  19.4263
   319,'CLAY        ', 230.0000,1,  32,  35,   1,1.02301,  14.1730
   320,'CLIVE       ', 230.0000,1,  32,  35,   1,1.03809,  15.2252
   321,'COBB        ', 230.0000,2,  32,  37,   1,1.05000,  20.6498
   322,'COLE        ', 230.0000,2,  32,  37,   1,1.05000,  26.3767
   323,'COMTE       ', 230.0000,2,  32,  35,   1,1.05000,  16.5153
   324,'CURIE       ', 230.0000,1,  32,  36,   1,0.98386,   9.8353
   325,'CURTISS     ', 230.0000,1,  32,  35,   1,1.05060,  16.6377
 0 /End of Bus data, Begin Load data
   101,'1 ',1,   1,   1,   108.000,    22.000,     0.000,     0.000,     0.000,     0.000,   1,1
   102,'1 ',1,   1,   1,    97.000,    20.000,     0.000,     0.000,     0.000,     0.000,   1,1
   103,'1 ',1,   1,   1,   180.000,    37.000,     0.000,     0.000,     0.000,     0.000,   1,1
   104,'1 ',1,   1,   1,    74.000,    15.000,     0.000,     0.000,     0.000,     0.000,   1,1
   105,'1 ',1,   1,   1,    71.000,    14.000,     0.000,     0.000,     0.000,     0.000,   1,1
   106,'1 ',1,   1,   1,   136.000,    28.000,     0.000,     0.000,     0.000,     0.000,   1,1
   107,'1 ',1,   1,   1,   125.000,    25.000,     0.000,     0.000,     0.000,     0.000,   1,1
   108,'1 ',1,   1,   1,   171.000,    35.000,     0.000,     0.000,     0.000,     0.000,   1,1
   109,'1 ',1,   1,   1,   175.000,    36.000,     0.000,     0.000,     0.000,     0.000,   1,1
   110,'1 ',1,   1,   1,   195.000,    40.000,     0.000,     0.000,     0.000,     0.000,   1,1
   113,'1 ',1,   1,   1,   265.000,    54.000,     0.000,     0.000,     0.000,     0.000,   1,1
   114,'1 ',1,   1,   1,   194.000,    39.000,     0.000,     0.000,     0.000,     0.000,   1,1
   115,'1 ',1,   1,   1,   317.000,    64.000,     0.000,     0.000,     0.000,     0.000,   1,1
   116,'1 ',1,   1,   1,   100.000,    20.000,     0.000,     0.000,     0.000,     0.000,   1,1
   118,'1 ',1,   1,   1,   333.000,    68.000,     0.000,     0.000,     0.000,     0.000,   1,1
   119,'1 ',1,   1,   1,   181.000,    37.000,     0.000,     0.000,     0.000,     0.000,   1,1
   120,'1 ',1,   1,   1,   128.000,    26.000,     0.000,     0.000,     0.000,     0.000,   1,1
   201,'1 ',1,   1,   1,   108.000,    22.000,     0.000,     0.000,     0.000,     0.000,   1,1
   202,'1 ',1,   1,   1,    97.000,    20.000,     0.000,     0.000,     0.000,     0.000,   1,1
   203,'1 ',1,   1,   1,   180.000,    37.000,     0.000,     0.000,     0.000,     0.000,   1,1
   204,'1 ',1,   1,   1,    74.000,    15.000,     0.000,     0.000,     0.000,     0.000,   1,1
   205,'1 ',1,   1,   1,    71.000,    14.000,     0.000,     0.000,     0.000,     0.000,   1,1
   206,'1 ',1,   1,   1,   136.000,    28.000,     0.000,     0.000,     0.000,     0.000,   1,1
   207,'1 ',1,   1,   1,   125.000,    25.000,     0.000,     0.000,     0.000,     0.000,   1,1
   208,'1 ',1,   1,   1,   171.000,    35.000,     0.000,     0.000,     0.000,     0.000,   1,1
   209,'1 ',1,   1,   1,   175.000,    36.000,     0.000,     0.000,     0.000,     0.000,   1,1
   210,'1 ',1,   1,   1,   195.000,    40.000,     0.000,     0.000,     0.000,     0.000,   1,1
   213,'1 ',1,   1,   1,   265.000,    54.000,     0.000,     0.000,     0.000,     0.000,   1,1
   214,'1 ',1,   1,   1,   194.000,    39.000,     0.000,     0.000,     0.000,     0.000,   1,1
   215,'1 ',1,   1,   1,   317.000,    64.000,     0.000,     0.000,     0.000,     0.000,   1,1
   216,'1 ',1,   1,   1,   100.000,    20.000,     0.000,     0.000,     0.000,     0.000,   1,1
   218,'1 ',1,   1,   1,   333.000,    68.000,     0.000,     0.000,     0.000,     0.000,   1,1
   219,'1 ',1,   1,   1,   181.000,    37.000,     0.000,     0.000,     0.000,     0.000,   1,1
   220,'1 ',1,   1,   1,   128.000,    26.000,     0.000,     0.000,     0.000,     0.000,   1,1
   301,'1 ',1,   1,   1,   108.000,    22.000,     0.000,     0.000,     0.000,     0.000,   1,1
   302,'1 ',1,   1,   1,    97.000,    20.000,     0.000,     0.000,     0.000,     0.000,   1,1
   303,'1 ',1,   1,   1,   180.000,    37.000,     0.000,     0.000,     0.000,     0.000,   1,1
   304,'1 ',1,   1,   1,    74.000,    15.000,     0.000,     0.000,     0.000,     0.000,   1,1
   305,'1 ',1,   1,   1,    71.000,    14.000,     0.000,     0.000,     0.000,     0.000,   1,1
   306,'1 ',1,   1,   1,   136.000,    28.000,     0.000,     0.000,     0.000,     0.000,   1,1
   307,'1 ',1,   1,   1,   125.000,    25.000,     0.000,     0.000,     0.000,     0.000,   1,1
   308,'1 ',1,   1,   1,   171.000,    35.000,     0.000,     0.000,     0.000,     0.000,   1,1
   309,'1 ',1,   1,   1,   175.000,    36.000,     0.000,     0.000,     0.000,     0.000,   1,1
   310,'1 ',1,   1,   1,   195.000,    40.000,     0.000,     0.000,     0.000,     0.000,   1,1
   313,'1 ',1,   1,   1,   265.000,    54.000,     0.000,     0.000,     0.000,     0.000,   1,1
   314,'1 ',1,   1,   1,   194.000,    39.000,     0.000,     0.000,     0.000,     0.000,   1,1
   315,'1 ',1,   1,   1,   317.000,    64.000,     0.000,     0.000,     0.000,     0.000,   1,1
   316,'1 ',1,   1,   1,   100.000,    20.000,     0.000,     0.000,     0.000,     0.000,   1,1
   318,'1 ',1,   1,   1,   333.000,    68.000,     0.000,     0.000,     0.000,     0.000,   1,1
   319,'1 ',1,   1,   1,   181.000,    37.000,     0.000,     0.000,     0.000,     0.000,   1,1
   320,'1 ',1,   1,   1,   128.000,    26.000,     0.000,     0.000,     0.000,     0.000,   1,1
 0 /End of Load data, Begin Fixed shunt data
   106,'1 ',1,     0.000,     1.000
   206,'1 ',1,     0.000,     1.000
   306,'1 ',1,     0.000,     1.000
 0 /End of Fixed shunt data, Begin Generator data
   101,'1 ',    10.000,     1.135,    10.000,     0.000,1.03500,     0,    24.000, 0.00000E+0, 2.50000E-1, 0.00000E+0, 0.00000E+0,1.00000,1,  100.0, 10000.000,-10000.000,   1,1.0000
   101,'2 ',    10.000,     1.135,    10.000,     0.000,1.03500,     0,    24.000, 0.00000E+0, 2.50000E-1, 0.00000E+0, 0.00000E+0,1.00000,1,  100.0, 10000.000,-10000.000,   1,1.0000
   101,'3 ',    76.000,     8.629,    30.000,   -25.000,1.03500,     0,    89.000, 0.00000E+0, 2.50000E-1, 0.00000E+0, 0.00000E+0,1.00000,1,  100.0, 10000.000,-10000.000,   1,1.0000
   101,'4 ',    76.000,     8.629,    30.000,   -25.000,1.03500,     0,    89.000, 0.00000E+0, 2.50000E-1, 0.00000E+0, 0.00000E+0,1.00000,1,  100.0, 10000.000,-10000.000,   1,1.0000
   102,'1 ',    10.000,     0.000,    10.000,     0.000,1.03500,     0,    24.000, 0.00000E+0, 2.50000E-1, 0.00000E+0, 0.00000E+0,1.00000,1,  100.0, 10000.000,-10000.000,   1,1.0000
   102,'2 ',    10.000,     0.000,    10.000,     0.000,1.03500,     0,    24.000, 0.00000E+0, 2.50000E-1, 0.00000E+0, 0.00000E+0,1.00000,1,  100.0, 10000.000,-10000.000,   1,1.0000
   102,'3 ',    76.000,    -6.005,    30.000,   -25.000,1.03500,     0,    89.000, 0.00000E+0, 2.50000E-1, 0.00000E+0, 0.00000E+0,1.00000,1,  100.0, 10000.000,-10000.000,   1,1.0000
   102,'4 ',    76.000,    -6.005,    30.000,   -25.000,1.03500,     0,    89.000, 0.00000E+0, 2.50000E-1, 0.00000E+0, 0.00000E+0,1.00000,1,  100.0, 10000.000,-10000.000,   1,1.0000
   107,'1 ',    80.000,    23.818,    60.000,     0.000,1.02500,     0,   118.000, 0.00000E+0, 2.50000E-1, 0.00000E+0, 0.00000E+0,1.00000,1,  100.0, 10000.000,-10000.000,   1,1.0000
   107,'2 ',    80.000,    23.818,    60.000,     0.000,1.02500,     0,   118.000, 0.00000E+0, 2.50000E-1, 0.00000E+0, 0.00000E+0,1.00000,1,  100.0, 10000.000,-10000.000,   1,1.0000
   107,'3 ',    80.000,    23.818,    60.000,     0.000,1.02500,     0,   118.000, 0.00000E+0, 2.50000E-1, 0.00000E+0, 0.00000E+0,1.00000,1,  100.0, 10000.000,-10000.000,   1,1.0000
   113,'1 ',    -3.653,    45.522,    80.000,     0.000,1.02000,     0,   232.000, 0.00000E+0, 2.50000E-1, 0.00000E+0, 0.00000E+0,1.00000,1,  100.0, 10000.000,-10000.000,   1,1.0000
   113,'2 ',    -3.653,    45.522,    80.000,     0.000,1.02000,     0,   232.000, 0.00000E+0, 2.50000E-1, 0.00000E+0, 0.00000E+0,1.00000,1,  100.0, 10000.000,-10000.000,   1,1.0000
   113,'3 ',    -3.653,    45.522,    80.000,     0.000,1.02000,     0,   232.000, 0.00000E+0, 2.50000E-1, 0.00000E+0, 0.00000E+0,1.00000,1,  100.0, 10000.000,-10000.000,   1,1.0000
   114,'1 ',     0.000,   -29.489,   200.000,   -50.000,0.98000,     0,   100.000, 0.00000E+0, 2.50000E-1, 0.00000E+0, 0.00000E+0,1.00000,1,  100.0, 10000.000,-10000.000,   1,1.0000
   115,'1 ',    12.000,     0.000,     6.000,     0.000,1.01400,     0,    12.000, 0.00000E+0, 2.50000E-1, 0.00000E+0, 0.00000E+0,1.00000,1,  100.0, 10000.000,-10000.000,   1,1.0000
   115,'2 ',    12.000,     0.000,     6.000,     0.000,1.01400,     0,    12.000, 0.00000E+0, 2.50000E-1, 0.00000E+0, 0.00000E+0,1.00000,1,  100.0, 10000.000,-10000.000,   1,1.0000
   115,'3 ',    12.000,     0.000,     6.000,     0.000,1.01400,     0,    12.000, 0.00000E+0, 2.50000E-1, 0.00000E+0, 0.00000E+0,1.00000,1,  100.0, 10000.000,-10000.000,   1,1.0000
   115,'4 ',    12.000,     0.000,     6.000,     0.000,1.01400,     0,    12.000, 0.00000E+0, 2.50000E-1, 0.00000E+0, 0.00000E+0,1.00000,1,  100.0, 10000.000,-10000.000,   1,1.0000
   115,'5 ',    12.000,     0.000,     6.000,     0.000,1.01400,     0,    12.000, 0.00000E+0, 2.50000E-1, 0.00000E+0, 0.00000E+0,1.00000,1,  100.0, 10000.000,-10000.000,   1,1.0000
   115,'6 ',   155.000,   -14.108,    80.000,   -50.000,1.01400,     0,   182.000, 0.00000E+0, 2.50000E-1, 0.00000E+0, 0.00000E+0,1.00000,1,  100.0, 10000.000,-10000.000,   1,1.0000
   116,'1 ',   155.000,    28.378,    80.000,   -50.000,1.01700,     0,   182.000, 0.00000E+0, 2.50000E-1, 0.00000E+0, 0.00000E+0,1.00000,1,  100.0, 10000.000,-10000.000,   1,1.0000
   118,'1 ',   400.000,   138.094,   200.000,   -50.000,1.05000,     0,   471.000, 0.00000E+0, 2.50000E-1, 0.00000E+0, 0.00000E+0,1.00000,1,  100.0, 10000.000,-10000.000,   1,1.0000
   121,'1 ',   400.000,    98.864,   200.000,   -50.000,1.05000,     0,   471.000, 0.00000E+0, 2.50000E-1, 0.00000E+0, 0.00000E+0,1.00000,1,  100.0, 10000.000,-10000.000,   1,1.0000
   122,'1 ',    50.000,    -5.104,    16.000,   -10.000,1.05000,     0,    53.000, 0.00000E+0, 2.50000E-1, 0.00000E+0, 0.00000E+0,1.00000,1,  100.0, 10000.000,-10000.000,   1,1.0000
   122,'2 ',    50.000,    -5.104,    16.000,   -10.000,1.05000,     0,    53.000, 0.00000E+0, 2.50000E-1, 0.00000E+0, 0.00000E+0,1.00000,1,  100.0, 10000.000,-10000.000,   1,1.0000
   122,'3 ',    50.000,    -5.104,    16.000,   -10.000,1.05000,     0,    53.000, 0.00000E+0, 2.50000E-1, 0.00000E+0, 0.00000E+0,1.00000,1,  100.0, 10000.000,-10000.000,   1,1.0000
   122,'4 ',    50.000,    -5.104,    16.000,   -10.000,1.05000,     0,    53.000, 0.00000E+0, 2.50000E-1, 0.00000E+0, 0.00000E+0,1.00000,1,  100.0, 10000.000,-10000.000,   1,1.0000
   122,'5 ',    50.000,    -5.104,    16.000,   -10.000,1.05000,     0,    53.000, 0.00000E+0, 2.50000E-1, 0.00000E+0, 0.00000E+0,1.00000,1,  100.0, 10000.000,-10000.000,   1,1.0000
   122,'6 ',    50.000,    -5.104,    16.000,   -10.000,1.05000,     0,    53.000, 0.00000E+0, 2.50000E-1, 0.00000E+0, 0.00000E+0,1.00000,1,  100.0, 10000.000,-10000.000,   1,1.0000
   123,'1 ',   155.000,    32.377,    80.000,   -50.000,1.05000,     0,   182.000, 0.00000E+0, 2.50000E-1, 0.00000E+0, 0.00000E+0,1.00000,1,  100.0, 10000.000,-10000.000,   1,1.0000
   123,'2 ',   155.000,    32.377,    80.000,   -50.000,1.05000,     0,   182.000, 0.00000E+0, 2.50000E-1, 0.00000E+0, 0.00000E+0,1.00000,1,  100.0, 10000.000,-10000.000,   1,1.0000
   123,'3 ',   350.000,    73.109,   150.000,   -25.000,1.05000,     0,   412.000, 0.00000E+0, 2.50000E-1, 0.00000E+0, 0.00000E+0,1.00000,1,  100.0, 10000.000,-10000.000,   1,1.0000
   201,'1 ',    10.000,     0.601,    10.000,     0.000,1.03500,     0,    24.000, 0.00000E+0, 2.50000E-1, 0.00000E+0, 0.00000E+0,1.00000,1,  100.0, 10000.000,-10000.000,   1,1.0000
   201,'2 ',    10.000,     0.601,    10.000,     0.000,1.03500,     0,    24.000, 0.00000E+0, 2.50000E-1, 0.00000E+0, 0.00000E+0,1.00000,1,  100.0, 10000.000,-10000.000,   1,1.0000
   201,'3 ',    76.000,     4.565,    30.000,   -25.000,1.03500,     0,    89.000, 0.00000E+0, 2.50000E-1, 0.00000E+0, 0.00000E+0,1.00000,1,  100.0, 10000.000,-10000.000,   1,1.0000
   201,'4 ',    76.000,     4.565,    30.000,   -25.000,1.03500,     0,    89.000, 0.00000E+0, 2.50000E-1, 0.00000E+0, 0.00000E+0,1.00000,1,  100.0, 10000.000,-10000.000,   1,1.0000
   202,'1 ',    10.000,     0.000,    10.000,     0.000,1.03500,     0,    24.000, 0.00000E+0, 2.50000E-1, 0.00000E+0, 0.00000E+0,1.00000,1,  100.0, 10000.000,-10000.000,   1,1.0000
   202,'2 ',    10.000,     0.000,    10.000,     0.000,1.03500,     0,    24.000, 0.00000E+0, 2.50000E-1, 0.00000E+0, 0.00000E+0,1.00000,1,  100.0, 10000.000,-10000.000,   1,1.0000
   202,'3 ',    76.000,    -7.219,    30.000,   -25.000,1.03500,     0,    89.000, 0.00000E+0, 2.50000E-1, 0.00000E+0, 0.00000E+0,1.00000,1,  100.0, 10000.000,-10000.000,   1,1.0000
   202,'4 ',    76.000,    -7.219,    30.000,   -25.000,1.03500,     0,    89.000, 0.00000E+0, 2.50000E-1, 0.00000E+0, 0.00000E+0,1.00000,1,  100.0, 10000.000,-10000.000,   1,1.0000
   207,'1 ',    80.000,    16.333,    60.000,     0.000,1.02500,     0,   118.000, 0.00000E+0, 2.50000E-1, 0.00000E+0, 0.00000E+0,1.00000,1,  100.0, 10000.000,-10000.000,   1,1.0000
   207,'2 ',    80.000,    16.333,    60.000,     0.000,1.02500,     0,   118.000, 0.00000E+0, 2.50000E-1, 0.00000E+0, 0.00000E+0,1.00000,1,  100.0, 10000.000,-10000.000,   1,1.0000
   207,'3 ',    80.000,    16.333,    60.000,     0.000,1.02500,     0,   118.000, 0.00000E+0, 2.50000E-1, 0.00000E+0, 0.00000E+0,1.00000,1,  100.0, 10000.000,-10000.000,   1,1.0000
   213,'1 ',    95.100,    27.481,    80.000,     0.000,1.02000,     0,   232.000, 0.00000E+0, 2.50000E-1, 0.00000E+0, 0.00000E+0,1.00000,1,  100.0, 10000.000,-10000.000,   1,1.0000
   213,'2 ',    95.100,    27.481,    80.000,     0.000,1.02000,     0,   232.000, 0.00000E+0, 2.50000E-1, 0.00000E+0, 0.00000E+0,1.00000,1,  100.0, 10000.000,-10000.000,   1,1.0000
   213,'3 ',    95.100,    27.481,    80.000,     0.000,1.02000,     0,   232.000, 0.00000E+0, 2.50000E-1, 0.00000E+0, 0.00000E+0,1.00000,1,  100.0, 10000.000,-10000.000,   1,1.0000
   214,'1 ',     0.000,   -41.084,   200.000,   -50.000,0.98000,     0,   100.000, 0.00000E+0, 2.50000E-1, 0.00000E+0, 0.00000E+0,1.00000,1,  100.0, 10000.000,-10000.000,   1,1.0000
   215,'1 ',    12.000,     0.000,     6.000,     0.000,1.01400,     0,    12.000, 0.00000E+0, 2.50000E-1, 0.00000E+0, 0.00000E+0,1.00000,1,  100.0, 10000.000,-10000.000,   1,1.0000
   215,'2 ',    12.000,     0.000,     6.000,     0.000,1.01400,     0,    12.000, 0.00000E+0, 2.50000E-1, 0.00000E+0, 0.00000E+0,1.00000,1,  100.0, 10000.000,-10000.000,   1,1.0000
   215,'3 ',    12.000,     0.000,     6.000,     0.000,1.01400,     0,    12.000, 0.00000E+0, 2.50000E-1, 0.00000E+0, 0.00000E+0,1.00000,1,  100.0, 10000.000,-10000.000,   1,1.0000
   215,'4 ',    12.000,     0.000,     6.000,     0.000,1.01400,     0,    12.000, 0.00000E+0, 2.50000E-1, 0.00000E+0, 0.00000E+0,1.00000,1,  100.0, 10000.000,-10000.000,   1,1.0000
   215,'5 ',    12.000,     0.000,     6.000,     0.000,1.01400,     0,    12.000, 0.00000E+0, 2.50000E-1, 0.00000E+0, 0.00000E+0,1.00000,1,  100.0, 10000.000,-10000.000,   1,1.0000
   215,'6 ',   155.000,   -36.967,    80.000,   -50.000,1.01400,     0,   182.000, 0.00000E+0, 2.50000E-1, 0.00000E+0, 0.00000E+0,1.00000,1,  100.0, 10000.000,-10000.000,   1,1.0000
   216,'1 ',   155.000,     6.770,    80.000,   -50.000,1.01700,     0,   182.000, 0.00000E+0, 2.50000E-1, 0.00000E+0, 0.00000E+0,1.00000,1,  100.0, 10000.000,-10000.000,   1,1.0000
   218,'1 ',   400.000,   122.397,   200.000,   -50.000,1.05000,     0,   471.000, 0.00000E+0, 2.50000E-1, 0.00000E+0, 0.00000E+0,1.00000,1,  100.0, 10000.000,-10000.000,   1,1.0000
   221,'1 ',   400.000,   114.373,   200.000,   -50.000,1.05000,     0,   471.000, 0.00000E+0, 2.50000E-1, 0.00000E+0, 0.00000E+0,1.00000,1,  100.0, 10000.000,-10000.000,   1,1.0000
   222,'1 ',    50.000,    -5.459,    16.000,   -10.000,1.05000,     0,    53.000, 0.00000E+0, 2.50000E-1, 0.00000E+0, 0.00000E+0,1.00000,1,  100.0, 10000.000,-10000.000,   1,1.0000
   222,'2 ',    50.000,    -5.459,    16.000,   -10.000,1.05000,     0,    53.000, 0.00000E+0, 2.50000E-1, 0.00000E+0, 0.00000E+0,1.00000,1,  100.0, 10000.000,-10000.000,   1,1.0000
   222,'3 ',    50.000,    -5.459,    16.000,   -10.000,1.05000,     0,    53.000, 0.00000E+0, 2.50000E-1, 0.00000E+0, 0.00000E+0,1.00000,1,  100.0, 10000.000,-10000.000,   1,1.0000
   222,'4 ',    50.000,    -5.459,    16.000,   -10.000,1.05000,     0,    53.000, 0.00000E+0, 2.50000E-1, 0.00000E+0, 0.00000E+0,1.00000,1,  100.0, 10000.000,-10000.000,   1,1.0000
   222,'5 ',    50.000,    -5.459,    16.000,   -10.000,1.05000,     0,    53.000, 0.00000E+0, 2.50000E-1, 0.00000E+0, 0.00000E+0,1.00000,1,  100.0, 10000.000,-10000.000,   1,1.0000
   222,'6 ',    50.000,    -5.459,    16.000,   -10.000,1.05000,     0,    53.000, 0.00000E+0, 2.50000E-1, 0.00000E+0, 0.00000E+0,1.00000,1,  100.0, 10000.000,-10000.000,   1,1.0000
   223,'1 ',   155.000,    30.952,    80.000,   -50.000,1.05000,     0,   182.000, 0.00000E+0, 2.50000E-1, 0.00000E+0, 0.00000E+0,1.00000,1,  100.0, 10000.000,-10000.000,   1,1.0000
   223,'2 ',   155.000,    30.952,    80.000,   -50.000,1.05000,     0,   182.000, 0.00000E+0, 2.50000E-1, 0.00000E+0, 0.00000E+0,1.00000,1,  100.0, 10000.000,-10000.000,   1,1.0000
   223,'3 ',   350.000,    69.893,   150.000,   -25.000,1.05000,     0,   412.000, 0.00000E+0, 2.50000E-1, 0.00000E+0, 0.00000E+0,1.00000,1,  100.0, 10000.000,-10000.000,   1,1.0000
   301,'1 ',    10.000,     1.052,    10.000,     0.000,1.03500,     0,    24.000, 0.00000E+0, 2.50000E-1, 0.00000E+0, 0.00000E+0,1.00000,1,  100.0, 10000.000,-10000.000,   1,1.0000
   301,'2 ',    10.000,     1.052,    10.000,     0.000,1.03500,     0,    24.000, 0.00000E+0, 2.50000E-1, 0.00000E+0, 0.00000E+0,1.00000,1,  100.0, 10000.000,-10000.000,   1,1.0000
   301,'3 ',    76.000,     7.996,    30.000,   -25.000,1.03500,     0,    89.000, 0.00000E+0, 2.50000E-1, 0.00000E+0, 0.00000E+0,1.00000,1,  100.0, 10000.000,-10000.000,   1,1.0000
   301,'4 ',    76.000,     7.996,    30.000,   -25.000,1.03500,     0,    89.000, 0.00000E+0, 2.50000E-1, 0.00000E+0, 0.00000E+0,1.00000,1,  100.0, 10000.000,-10000.000,   1,1.0000
   302,'1 ',    10.000,     0.000,    10.000,     0.000,1.03500,     0,    24.000, 0.00000E+0, 2.50000E-1, 0.00000E+0, 0.00000E+0,1.00000,1,  100.0, 10000.000,-10000.000,   1,1.0000
   302,'2 ',    10.000,     0.000,    10.000,     0.000,1.03500,     0,    24.000, 0.00000E+0, 2.50000E-1, 0.00000E+0, 0.00000E+0,1.00000,1,  100.0, 10000.000,-10000.000,   1,1.0000
   302,'3 ',    76.000,    -6.314,    30.000,   -25.000,1.03500,     0,    89.000, 0.00000E+0, 2.50000E-1, 0.00000E+0, 0.00000E+0,1.00000,1,  100.0, 10000.000,-10000.000,   1,1.0000
   302,'4 ',    76.000,    -6.314,    30.000,   -25.000,1.03500,     0,    89.000, 0.00000E+0, 2.50000E-1, 0.00000E+0, 0.00000E+0,1.00000,1,  100.0, 10000.000,-10000.000,   1,1.0000
   307,'1 ',    80.000,    16.796,    60.000,     0.000,1.02500,     0,   118.000, 0.00000E+0, 2.50000E-1, 0.00000E+0, 0.00000E+0,1.00000,1,  100.0, 10000.000,-10000.000,   1,1.0000
   307,'2 ',    80.000,    16.796,    60.000,     0.000,1.02500,     0,   118.000, 0.00000E+0, 2.50000E-1, 0.00000E+0, 0.00000E+0,1.00000,1,  100.0, 10000.000,-10000.000,   1,1.0000
   307,'3 ',    80.000,    16.796,    60.000,     0.000,1.02500,     0,   118.000, 0.00000E+0, 2.50000E-1, 0.00000E+0, 0.00000E+0,1.00000,1,  100.0, 10000.000,-10000.000,   1,1.0000
   313,'1 ',    95.104,    26.377,    80.000,     0.000,1.02000,     0,   232.000, 0.00000E+0, 2.50000E-1, 0.00000E+0, 0.00000E+0,1.00000,1,  100.0, 10000.000,-10000.000,   1,1.0000
   313,'2 ',    95.104,    26.377,    80.000,     0.000,1.02000,     0,   232.000, 0.00000E+0, 2.50000E-1, 0.00000E+0, 0.00000E+0,1.00000,1,  100.0, 10000.000,-10000.000,   1,1.0000
   313,'3 ',    95.104,    26.377,    80.000,     0.000,1.02000,     0,   232.000, 0.00000E+0, 2.50000E-1, 0.00000E+0, 0.00000E+0,1.00000,1,  100.0, 10000.000,-10000.000,   1,1.0000
   314,'1 ',     0.000,   -36.657,   200.000,   -50.000,0.98000,     0,   100.000, 0.00000E+0, 2.50000E-1, 0.00000E+0, 0.00000E+0,1.00000,1,  100.0, 10000.000,-10000.000,   1,1.0000
   315,'1 ',    12.000,     0.000,     6.000,     0.000,1.01400,     0,    12.000, 0.00000E+0, 2.50000E-1, 0.00000E+0, 0.00000E+0,1.00000,1,  100.0, 10000.000,-10000.000,   1,1.0000
   315,'2 ',    12.000,     0.000,     6.000,     0.000,1.01400,     0,    12.000, 0.00000E+0, 2.50000E-1, 0.00000E+0, 0.00000E+0,1.00000,1,  100.0, 10000.000,-10000.000,   1,1.0000
   315,'3 ',    12.000,     0.000,     6.000,     0.000,1.01400,     0,    12.000, 0.00000E+0, 2.50000E-1, 0.00000E+0, 0.00000E+0,1.00000,1,  100.0, 10000.000,-10000.000,   1,1.0000
   315,'4 ',    12.000,     0.000,     6.000,     0.000,1.01400,     0,    12.000, 0.00000E+0, 2.50000E-1, 0.00000E+0, 0.00000E+0,1.00000,1,  100.0, 10000.000,-10000.000,   1,1.0000
   315,'5 ',    12.000,     0.000,     6.000,     0.000,1.01400,     0,    12.000, 0.00000E+0, 2.50000E-1, 0.00000E+0, 0.00000E+0,1.00000,1,  100.0, 10000.000,-10000.000,   1,1.0000
   315,'6 ',   155.000,   -25.650,    80.000,   -50.000,1.01400,     0,   182.000, 0.00000E+0, 2.50000E-1, 0.00000E+0, 0.00000E+0,1.00000,1,  100.0, 10000.000,-10000.000,   1,1.0000
   316,'1 ',   155.000,    13.674,    80.000,   -50.000,1.01700,     0,   182.000, 0.00000E+0, 2.50000E-1, 0.00000E+0, 0.00000E+0,1.00000,1,  100.0, 10000.000,-10000.000,   1,1.0000
   318,'1 ',   400.000,   130.644,   200.000,   -50.000,1.05000,     0,   471.000, 0.00000E+0, 2.50000E-1, 0.00000E+0, 0.00000E+0,1.00000,1,  100.0, 10000.000,-10000.000,   1,1.0000
   321,'1 ',   400.000,   108.179,   200.000,   -50.000,1.05000,     0,   471.000, 0.00000E+0, 2.50000E-1, 0.00000E+0, 0.00000E+0,1.00000,1,  100.0, 10000.000,-10000.000,   1,1.0000
   322,'1 ',    50.000,    -5.193,    16.000,   -10.000,1.05000,     0,    53.000, 0.00000E+0, 2.50000E-1, 0.00000E+0, 0.00000E+0,1.00000,1,  100.0, 10000.000,-10000.000,   1,1.0000
   322,'2 ',    50.000,    -5.193,    16.000,   -10.000,1.05000,     0,    53.000, 0.00000E+0, 2.50000E-1, 0.00000E+0, 0.00000E+0,1.00000,1,  100.0, 10000.000,-10000.000,   1,1.0000
   322,'3 ',    50.000,    -5.193,    16.000,   -10.000,1.05000,     0,    53.000, 0.00000E+0, 2.50000E-1, 0.00000E+0, 0.00000E+0,1.00000,1,  100.0, 10000.000,-10000.000,   1,1.0000
   322,'4 ',    50.000,    -5.193,    16.000,   -10.000,1.05000,     0,    53.000, 0.00000E+0, 2.50000E-1, 0.00000E+0, 0.00000E+0,1.00000,1,  100.0, 10000.000,-10000.000,   1,1.0000
   322,'5 ',    50.000,    -5.193,    16.000,   -10.000,1.05000,     0,    53.000, 0.00000E+0, 2.50000E-1, 0.00000E+0, 0.00000E+0,1.00000,1,  100.0, 10000.000,-10000.000,   1,1.0000
   322,'6 ',    50.000,    -5.193,    16.000,   -10.000,1.05000,     0,    53.000, 0.00000E+0, 2.50000E-1, 0.00000E+0, 0.00000E+0,1.00000,1,  100.0, 10000.000,-10000.000,   1,1.0000
   323,'1 ',   155.000,    26.770,    80.000,   -50.000,1.05000,     0,   182.000, 0.00000E+0, 2.50000E-1, 0.00000E+0, 0.00000E+0,1.00000,1,  100.0, 10000.000,-10000.000,   1,1.0000
   323,'2 ',   155.000,    26.770,    80.000,   -50.000,1.05000,     0,   182.000, 0.00000E+0, 2.50000E-1, 0.00000E+0, 0.00000E+0,1.00000,1,  100.0, 10000.000,-10000.000,   1,1.0000
   323,'3 ',   350.000,    60.449,   150.000,   -25.000,1.05000,     0,   412.000, 0.00000E+0, 2.50000E-1, 0.00000E+0, 0.00000E+0,1.00000,1,  100.0, 10000.000,-10000.000,   1,1.0000
 0 /End of Generator data, Begin Branch data
   101,    102,'1 ', 3.00000E-3, 1.40000E-2,   0.46100,    0.00,    0.00,    1.00,  0.00000,  0.00000,  0.00000,  0.00000,1,1,   0.00,   1,1.0000
   101,    103,'1 ', 5.50000E-2, 2.11000E-1,   0.05700,    0.00,    0.00,    1.00,  0.00000,  0.00000,  0.00000,  0.00000,1,1,   0.00,   1,1.0000
   101,    105,'1 ', 2.20000E-2, 8.50000E-2,   0.02300,    0.00,    0.00,    1.00,  0.00000,  0.00000,  0.00000,  0.00000,1,1,   0.00,   1,1.0000
   102,    104,'1 ', 3.30000E-2, 1.27000E-1,   0.03400,    0.00,    0.00,    1.00,  0.00000,  0.00000,  0.00000,  0.00000,1,1,   0.00,   1,1.0000
   102,    106,'1 ', 5.00000E-2, 1.92000E-1,   0.05200,    0.00,    0.00,    1.00,  0.00000,  0.00000,  0.00000,  0.00000,1,1,   0.00,   1,1.0000
   103,    109,'1 ', 3.10000E-2, 1.19000E-1,   0.03200,    0.00,    0.00,    1.00,  0.00000,  0.00000,  0.00000,  0.00000,1,1,   0.00,   1,1.0000
   104,    109,'1 ', 2.70000E-2, 1.04000E-1,   0.02800,    0.00,    0.00,    1.00,  0.00000,  0.00000,  0.00000,  0.00000,1,1,   0.00,   1,1.0000
   105,    110,'1 ', 2.30000E-2, 8.80000E-2,   0.02400,    0.00,    0.00,    1.00,  0.00000,  0.00000,  0.00000,  0.00000,1,1,   0.00,   1,1.0000
   106,    110,'1 ', 1.40000E-2, 6.10000E-2,   2.45900,    0.00,    0.00,    1.00,  0.00000,  0.00000,  0.00000,  0.00000,1,1,   0.00,   1,1.0000
   107,    108,'1 ', 1.60000E-2, 6.10000E-2,   0.01700,    0.00,    0.00,    1.00,  0.00000,  0.00000,  0.00000,  0.00000,1,1,   0.00,   1,1.0000
   107,    203,'1 ', 4.20000E-2, 1.61000E-1,   0.04400,    0.00,    0.00,    1.00,  0.00000,  0.00000,  0.00000,  0.00000,1,1,   0.00,   1,1.0000
   108,    109,'1 ', 4.30000E-2, 1.65000E-1,   0.04500,    0.00,    0.00,    1.00,  0.00000,  0.00000,  0.00000,  0.00000,1,1,   0.00,   1,1.0000
   108,    110,'1 ', 4.30000E-2, 1.65000E-1,   0.04500,    0.00,    0.00,    1.00,  0.00000,  0.00000,  0.00000,  0.00000,1,1,   0.00,   1,1.0000
   111,    113,'1 ', 6.00000E-3, 4.80000E-2,   0.10000,    0.00,    0.00,    1.00,  0.00000,  0.00000,  0.00000,  0.00000,1,1,   0.00,   1,1.0000
   111,    114,'1 ', 5.00000E-3, 4.20000E-2,   0.08800,    0.00,    0.00,    1.00,  0.00000,  0.00000,  0.00000,  0.00000,1,1,   0.00,   1,1.0000
   112,    113,'1 ', 6.00000E-3, 4.80000E-2,   0.10000,    0.00,    0.00,    1.00,  0.00000,  0.00000,  0.00000,  0.00000,1,1,   0.00,   1,1.0000
   112,    123,'1 ', 1.20000E-2, 9.70000E-2,   0.20300,    0.00,    0.00,    1.00,  0.00000,  0.00000,  0.00000,  0.00000,1,1,   0.00,   1,1.0000
   113,    123,'1 ', 1.10000E-2, 8.70000E-2,   0.18200,    0.00,    0.00,    1.00,  0.00000,  0.00000,  0.00000,  0.00000,1,1,   0.00,   1,1.0000
   113,    215,'1 ', 1.00000E-2, 7.50000E-2,   0.15800,    0.00,    0.00,    1.00,  0.00000,  0.00000,  0.00000,  0.00000,1,1,   0.00,   1,1.0000
   114,    116,'1 ', 5.00000E-3, 5.90000E-2,   0.08200,    0.00,    0.00,    1.00,  0.00000,  0.00000,  0.00000,  0.00000,1,1,   0.00,   1,1.0000
   115,    116,'1 ', 2.00000E-3, 1.70000E-2,   0.03600,    0.00,    0.00,    1.00,  0.00000,  0.00000,  0.00000,  0.00000,1,1,   0.00,   1,1.0000
   115,    121,'1 ', 6.00000E-3, 4.90000E-2,   0.10300,    0.00,    0.00,    1.00,  0.00000,  0.00000,  0.00000,  0.00000,1,1,   0.00,   1,1.0000
   115,    121,'2 ', 6.00000E-3, 4.90000E-2,   0.10300,    0.00,    0.00,    1.00,  0.00000,  0.00000,  0.00000,  0.00000,1,1,   0.00,   1,1.0000
   115,    124,'1 ', 7.00000E-3, 5.20000E-2,   0.10900,    0.00,    0.00,    1.00,  0.00000,  0.00000,  0.00000,  0.00000,1,1,   0.00,   1,1.0000
   116,    117,'1 ', 3.00000E-3, 2.60000E-2,   0.05500,    0.00,    0.00,    1.00,  0.00000,  0.00000,  0.00000,  0.00000,1,1,   0.00,   1,1.0000
   116,    119,'1 ', 3.00000E-3, 2.30000E-2,   0.04900,    0.00,    0.00,    1.00,  0.00000,  0.00000,  0.00000,  0.00000,1,1,   0.00,   1,1.0000
   117,    118,'1 ', 2.00000E-3, 1.40000E-2,   0.03000,    0.00,    0.00,    1.00,  0.00000,  0.00000,  0.00000,  0.00000,1,1,   0.00,   1,1.0000
   117,    122,'1 ', 1.40000E-2, 1.05000E-1,   0.22100,    0.00,    0.00,    1.00,  0.00000,  0.00000,  0.00000,  0.00000,1,1,   0.00,   1,1.0000
   118,    121,'1 ', 3.00000E-3, 2.60000E-2,   0.05500,    0.00,    0.00,    1.00,  0.00000,  0.00000,  0.00000,  0.00000,1,1,   0.00,   1,1.0000
   118,    121,'2 ', 3.00000E-3, 2.60000E-2,   0.05500,    0.00,    0.00,    1.00,  0.00000,  0.00000,  0.00000,  0.00000,1,1,   0.00,   1,1.0000
   119,    120,'1 ', 5.00000E-3, 4.00000E-2,   0.08300,    0.00,    0.00,    1.00,  0.00000,  0.00000,  0.00000,  0.00000,1,1,   0.00,   1,1.0000
   119,    120,'2 ', 5.00000E-3, 4.00000E-2,   0.08300,    0.00,    0.00,    1.00,  0.00000,  0.00000,  0.00000,  0.00000,1,1,   0.00,   1,1.0000
   120,    123,'1 ', 3.00000E-3, 2.20000E-2,   0.04600,    0.00,    0.00,    1.00,  0.00000,  0.00000,  0.00000,  0.00000,1,1,   0.00,   1,1.0000
   120,    123,'2 ', 3.00000E-3, 2.20000E-2,   0.04600,    0.00,    0.00,    1.00,  0.00000,  0.00000,  0.00000,  0.00000,1,1,   0.00,   1,1.0000
   121,    122,'1 ', 9.00000E-3, 6.80000E-2,   0.14200,    0.00,    0.00,    1.00,  0.00000,  0.00000,  0.00000,  0.00000,1,1,   0.00,   1,1.0000
   121,    325,'1 ', 1.20000E-2, 9.70000E-2,   0.20300,    0.00,    0.00,    1.00,  0.00000,  0.00000,  0.00000,  0.00000,1,2,   0.00,   1,1.0000
   123,    217,'1 ', 1.00000E-2, 7.40000E-2,   0.15500,    0.00,    0.00,    1.00,  0.00000,  0.00000,  0.00000,  0.00000,1,1,   0.00,   1,1.0000
   201,    202,'1 ', 3.00000E-3, 1.40000E-2,   0.46100,    0.00,    0.00,    1.00,  0.00000,  0.00000,  0.00000,  0.00000,1,1,   0.00,   1,1.0000
   201,    203,'1 ', 5.50000E-2, 2.11000E-1,   0.05700,    0.00,    0.00,    1.00,  0.00000,  0.00000,  0.00000,  0.00000,1,1,   0.00,   1,1.0000
   201,    205,'1 ', 2.20000E-2, 8.50000E-2,   0.02300,    0.00,    0.00,    1.00,  0.00000,  0.00000,  0.00000,  0.00000,1,1,   0.00,   1,1.0000
   202,    204,'1 ', 3.30000E-2, 1.27000E-1,   0.03400,    0.00,    0.00,    1.00,  0.00000,  0.00000,  0.00000,  0.00000,1,1,   0.00,   1,1.0000
   202,    206,'1 ', 5.00000E-2, 1.92000E-1,   0.05200,    0.00,    0.00,    1.00,  0.00000,  0.00000,  0.00000,  0.00000,1,1,   0.00,   1,1.0000
   203,    209,'1 ', 3.10000E-2, 1.19000E-1,   0.03200,    0.00,    0.00,    1.00,  0.00000,  0.00000,  0.00000,  0.00000,1,1,   0.00,   1,1.0000
   204,    209,'1 ', 2.70000E-2, 1.04000E-1,   0.02800,    0.00,    0.00,    1.00,  0.00000,  0.00000,  0.00000,  0.00000,1,1,   0.00,   1,1.0000
   205,    210,'1 ', 2.30000E-2, 8.80000E-2,   0.02400,    0.00,    0.00,    1.00,  0.00000,  0.00000,  0.00000,  0.00000,1,1,   0.00,   1,1.0000
   206,    210,'1 ', 1.40000E-2, 6.10000E-2,   2.45900,    0.00,    0.00,    1.00,  0.00000,  0.00000,  0.00000,  0.00000,1,1,   0.00,   1,1.0000
   207,    208,'1 ', 1.60000E-2, 6.10000E-2,   0.01700,    0.00,    0.00,    1.00,  0.00000,  0.00000,  0.00000,  0.00000,1,1,   0.00,   1,1.0000
   208,    209,'1 ', 4.30000E-2, 1.65000E-1,   0.04500,    0.00,    0.00,    1.00,  0.00000,  0.00000,  0.00000,  0.00000,1,1,   0.00,   1,1.0000
   208,    210,'1 ', 4.30000E-2, 1.65000E-1,   0.04500,    0.00,    0.00,    1.00,  0.00000,  0.00000,  0.00000,  0.00000,1,1,   0.00,   1,1.0000
   211,    213,'1 ', 6.00000E-3, 4.80000E-2,   0.10000,    0.00,    0.00,    1.00,  0.00000,  0.00000,  0.00000,  0.00000,1,1,   0.00,   1,1.0000
   211,    214,'1 ', 5.00000E-3, 4.20000E-2,   0.08800,    0.00,    0.00,    1.00,  0.00000,  0.00000,  0.00000,  0.00000,1,1,   0.00,   1,1.0000
   212,    213,'1 ', 6.00000E-3, 4.80000E-2,   0.10000,    0.00,    0.00,    1.00,  0.00000,  0.00000,  0.00000,  0.00000,1,1,   0.00,   1,1.0000
   212,    223,'1 ', 1.20000E-2, 9.70000E-2,   0.20300,    0.00,    0.00,    1.00,  0.00000,  0.00000,  0.00000,  0.00000,1,1,   0.00,   1,1.0000
   213,    223,'1 ', 1.10000E-2, 8.70000E-2,   0.18200,    0.00,    0.00,    1.00,  0.00000,  0.00000,  0.00000,  0.00000,1,1,   0.00,   1,1.0000
   214,    216,'1 ', 5.00000E-3, 5.90000E-2,   0.08200,    0.00,    0.00,    1.00,  0.00000,  0.00000,  0.00000,  0.00000,1,1,   0.00,   1,1.0000
   215,    216,'1 ', 2.00000E-3, 1.70000E-2,   0.03600,    0.00,    0.00,    1.00,  0.00000,  0.00000,  0.00000,  0.00000,1,1,   0.00,   1,1.0000
   215,    221,'1 ', 6.00000E-3, 4.90000E-2,   0.10300,    0.00,    0.00,    1.00,  0.00000,  0.00000,  0.00000,  0.00000,1,1,   0.00,   1,1.0000
   215,    221,'2 ', 6.00000E-3, 4.90000E-2,   0.10300,    0.00,    0.00,    1.00,  0.00000,  0.00000,  0.00000,  0.00000,1,1,   0.00,   1,1.0000
   215,    224,'1 ', 7.00000E-3, 5.20000E-2,   0.10900,    0.00,    0.00,    1.00,  0.00000,  0.00000,  0.00000,  0.00000,1,1,   0.00,   1,1.0000
   216,    217,'1 ', 3.00000E-3, 2.60000E-2,   0.05500,    0.00,    0.00,    1.00,  0.00000,  0.00000,  0.00000,  0.00000,1,1,   0.00,   1,1.0000
   216,    219,'1 ', 3.00000E-3, 2.30000E-2,   0.04900,    0.00,    0.00,    1.00,  0.00000,  0.00000,  0.00000,  0.00000,1,1,   0.00,   1,1.0000
   217,    218,'1 ', 2.00000E-3, 1.40000E-2,   0.03000,    0.00,    0.00,    1.00,  0.00000,  0.00000,  0.00000,  0.00000,1,1,   0.00,   1,1.0000
   217,    222,'1 ', 1.40000E-2, 1.05000E-1,   0.22100,    0.00,    0.00,    1.00,  0.00000,  0.00000,  0.00000,  0.00000,1,1,   0.00,   1,1.0000
   218,    221,'1 ', 3.00000E-3, 2.60000E-2,   0.05500,    0.00,    0.00,    1.00,  0.00000,  0.00000,  0.00000,  0.00000,1,1,   0.00,   1,1.0000
   218,    221,'2 ', 3.00000E-3, 2.60000E-2,   0.05500,    0.00,    0.00,    1.00,  0.00000,  0.00000,  0.00000,  0.00000,1,1,   0.00,   1,1.0000
   219,    220,'1 ', 5.00000E-3, 4.00000E-2,   0.08300,    0.00,    0.00,    1.00,  0.00000,  0.00000,  0.00000,  0.00000,1,1,   0.00,   1,1.0000
   219,    220,'2 ', 5.00000E-3, 4.00000E-2,   0.08300,    0.00,    0.00,    1.00,  0.00000,  0.00000,  0.00000,  0.00000,1,1,   0.00,   1,1.0000
   220,    223,'1 ', 3.00000E-3, 2.20000E-2,   0.04600,    0.00,    0.00,    1.00,  0.00000,  0.00000,  0.00000,  0.00000,1,1,   0.00,   1,1.0000
   220,    223,'2 ', 3.00000E-3, 2.20000E-2,   0.04600,    0.00,    0.00,    1.00,  0.00000,  0.00000,  0.00000,  0.00000,1,1,   0.00,   1,1.0000
   221,    222,'1 ', 9.00000E-3, 6.80000E-2,   0.14200,    0.00,    0.00,    1.00,  0.00000,  0.00000,  0.00000,  0.00000,1,1,   0.00,   1,1.0000
   223,    318,'1 ', 1.30000E-2, 1.04000E-1,   0.21800,    0.00,    0.00,    1.00,  0.00000,  0.00000,  0.00000,  0.00000,1,2,   0.00,   1,1.0000
   301,    302,'1 ', 3.00000E-3, 1.40000E-2,   0.46100,    0.00,    0.00,    1.00,  0.00000,  0.00000,  0.00000,  0.00000,1,1,   0.00,   1,1.0000
   301,    303,'1 ', 5.50000E-2, 2.11000E-1,   0.05700,    0.00,    0.00,    1.00,  0.00000,  0.00000,  0.00000,  0.00000,1,1,   0.00,   1,1.0000
   301,    305,'1 ', 2.20000E-2, 8.50000E-2,   0.02300,    0.00,    0.00,    1.00,  0.00000,  0.00000,  0.00000,  0.00000,1,1,   0.00,   1,1.0000
   302,    304,'1 ', 3.30000E-2, 1.27000E-1,   0.03400,    0.00,    0.00,    1.00,  0.00000,  0.00000,  0.00000,  0.00000,1,1,   0.00,   1,1.0000
   302,    306,'1 ', 5.00000E-2, 1.92000E-1,   0.05200,    0.00,    0.00,    1.00,  0.00000,  0.00000,  0.00000,  0.00000,1,1,   0.00,   1,1.0000
   303,    309,'1 ', 3.10000E-2, 1.19000E-1,   0.03200,    0.00,    0.00,    1.00,  0.00000,  0.00000,  0.00000,  0.00000,1,1,   0.00,   1,1.0000
   304,    309,'1 ', 2.70000E-2, 1.04000E-1,   0.02800,    0.00,    0.00,    1.00,  0.00000,  0.00000,  0.00000,  0.00000,1,1,   0.00,   1,1.0000
   305,    310,'1 ', 2.30000E-2, 8.80000E-2,   0.02400,    0.00,    0.00,    1.00,  0.00000,  0.00000,  0.00000,  0.00000,1,1,   0.00,   1,1.0000
   306,    310,'1 ', 1.40000E-2, 6.10000E-2,   2.45900,    0.00,    0.00,    1.00,  0.00000,  0.00000,  0.00000,  0.00000,1,1,   0.00,   1,1.0000
   307,    308,'1 ', 1.60000E-2, 6.10000E-2,   0.01700,    0.00,    0.00,    1.00,  0.00000,  0.00000,  0.00000,  0.00000,1,1,   0.00,   1,1.0000
   308,    309,'1 ', 4.30000E-2, 1.65000E-1,   0.04500,    0.00,    0.00,    1.00,  0.00000,  0.00000,  0.00000,  0.00000,1,1,   0.00,   1,1.0000
   308,    310,'1 ', 4.30000E-2, 1.65000E-1,   0.04500,    0.00,    0.00,    1.00,  0.00000,  0.00000,  0.00000,  0.00000,1,1,   0.00,   1,1.0000
   311,    313,'1 ', 6.00000E-3, 4.80000E-2,   0.10000,    0.00,    0.00,    1.00,  0.00000,  0.00000,  0.00000,  0.00000,1,1,   0.00,   1,1.0000
   311,    314,'1 ', 5.00000E-3, 4.20000E-2,   0.08800,    0.00,    0.00,    1.00,  0.00000,  0.00000,  0.00000,  0.00000,1,1,   0.00,   1,1.0000
   312,    313,'1 ', 6.00000E-3, 4.80000E-2,   0.10000,    0.00,    0.00,    1.00,  0.00000,  0.00000,  0.00000,  0.00000,1,1,   0.00,   1,1.0000
   312,    323,'1 ', 1.20000E-2, 9.70000E-2,   0.20300,    0.00,    0.00,    1.00,  0.00000,  0.00000,  0.00000,  0.00000,1,1,   0.00,   1,1.0000
   313,    323,'1 ', 1.10000E-2, 8.70000E-2,   0.18200,    0.00,    0.00,    1.00,  0.00000,  0.00000,  0.00000,  0.00000,1,1,   0.00,   1,1.0000
   314,    316,'1 ', 5.00000E-3, 5.90000E-2,   0.08200,    0.00,    0.00,    1.00,  0.00000,  0.00000,  0.00000,  0.00000,1,1,   0.00,   1,1.0000
   315,    316,'1 ', 2.00000E-3, 1.70000E-2,   0.03600,    0.00,    0.00,    1.00,  0.00000,  0.00000,  0.00000,  0.00000,1,1,   0.00,   1,1.0000
   315,    321,'1 ', 6.00000E-3, 4.90000E-2,   0.10300,    0.00,    0.00,    1.00,  0.00000,  0.00000,  0.00000,  0.00000,1,1,   0.00,   1,1.0000
   315,    321,'2 ', 6.00000E-3, 4.90000E-2,   0.10300,    0.00,    0.00,    1.00,  0.00000,  0.00000,  0.00000,  0.00000,1,1,   0.00,   1,1.0000
   315,    324,'1 ', 7.00000E-3, 5.20000E-2,   0.10900,    0.00,    0.00,    1.00,  0.00000,  0.00000,  0.00000,  0.00000,1,1,   0.00,   1,1.0000
   316,    317,'1 ', 3.00000E-3, 2.60000E-2,   0.05500,    0.00,    0.00,    1.00,  0.00000,  0.00000,  0.00000,  0.00000,1,1,   0.00,   1,1.0000
   316,    319,'1 ', 3.00000E-3, 2.30000E-2,   0.04900,    0.00,    0.00,    1.00,  0.00000,  0.00000,  0.00000,  0.00000,1,1,   0.00,   1,1.0000
   317,    318,'1 ', 2.00000E-3, 1.40000E-2,   0.03000,    0.00,    0.00,    1.00,  0.00000,  0.00000,  0.00000,  0.00000,1,1,   0.00,   1,1.0000
   317,    322,'1 ', 1.40000E-2, 1.05000E-1,   0.22100,    0.00,    0.00,    1.00,  0.00000,  0.00000,  0.00000,  0.00000,1,1,   0.00,   1,1.0000
   318,    321,'1 ', 3.00000E-3, 2.60000E-2,   0.05500,    0.00,    0.00,    1.00,  0.00000,  0.00000,  0.00000,  0.00000,1,1,   0.00,   1,1.0000
   318,    321,'2 ', 3.00000E-3, 2.60000E-2,   0.05500,    0.00,    0.00,    1.00,  0.00000,  0.00000,  0.00000,  0.00000,1,1,   0.00,   1,1.0000
   319,    320,'1 ', 5.00000E-3, 4.00000E-2,   0.08300,    0.00,    0.00,    1.00,  0.00000,  0.00000,  0.00000,  0.00000,1,1,   0.00,   1,1.0000
   319,    320,'2 ', 5.00000E-3, 4.00000E-2,   0.08300,    0.00,    0.00,    1.00,  0.00000,  0.00000,  0.00000,  0.00000,1,1,   0.00,   1,1.0000
   320,    323,'1 ', 3.00000E-3, 2.20000E-2,   0.04600,    0.00,    0.00,    1.00,  0.00000,  0.00000,  0.00000,  0.00000,1,1,   0.00,   1,1.0000
   320,    323,'2 ', 3.00000E-3, 2.20000E-2,   0.04600,    0.00,    0.00,    1.00,  0.00000,  0.00000,  0.00000,  0.00000,1,1,   0.00,   1,1.0000
   321,    322,'1 ', 9.00000E-3, 6.80000E-2,   0.14200,    0.00,    0.00,    1.00,  0.00000,  0.00000,  0.00000,  0.00000,1,1,   0.00,   1,1.0000
 0 /End of Branch data, Begin Transformer data
   103,   124,     0,'1 ',1,1,1, 0.00000E+0, 0.00000E+0,2,'            ',1,   1,1.0000
 2.00000E-3, 8.40000E-2,   100.00
1.00000,   0.000,   0.000,     0.00,     0.00,     0.00, 0,      0, 1.10000, 0.90000, 1.10000, 0.90000,  33, 0, 0.00000, 0.00000,  0.000
1.00000,   0.000
   109,   111,     0,'1 ',1,1,1, 0.00000E+0, 0.00000E+0,2,'            ',1,   1,1.0000
 2.00000E-3, 8.40000E-2,   100.00
1.00000,   0.000,   0.000,     0.00,     0.00,     0.00, 0,      0, 1.10000, 0.90000, 1.10000, 0.90000,  33, 0, 0.00000, 0.00000,  0.000
1.00000,   0.000
   109,   112,     0,'1 ',1,1,1, 0.00000E+0, 0.00000E+0,2,'            ',1,   1,1.0000
 2.00000E-3, 8.40000E-2,   100.00
1.00000,   0.000,   0.000,     0.00,     0.00,     0.00, 0,      0, 1.10000, 0.90000, 1.10000, 0.90000,  33, 0, 0.00000, 0.00000,  0.000
1.00000,   0.000
   110,   111,     0,'1 ',1,1,1, 0.00000E+0, 0.00000E+0,2,'            ',1,   1,1.0000
 2.00000E-3, 8.40000E-2,   100.00
1.00000,   0.000,   0.000,     0.00,     0.00,     0.00, 0,      0, 1.10000, 0.90000, 1.10000, 0.90000,  33, 0, 0.00000, 0.00000,  0.000
1.00000,   0.000
   110,   112,     0,'1 ',1,1,1, 0.00000E+0, 0.00000E+0,2,'            ',1,   1,1.0000
 2.00000E-3, 8.40000E-2,   100.00
1.00000,   0.000,   0.000,     0.00,     0.00,     0.00, 0,      0, 1.10000, 0.90000, 1.10000, 0.90000,  33, 0, 0.00000, 0.00000,  0.000
1.00000,   0.000
   203,   224,     0,'1 ',1,1,1, 0.00000E+0, 0.00000E+0,2,'            ',1,   1,1.0000
 2.00000E-3, 8.40000E-2,   100.00
1.00000,   0.000,   0.000,     0.00,     0.00,     0.00, 0,      0, 1.10000, 0.90000, 1.10000, 0.90000,  33, 0, 0.00000, 0.00000,  0.000
1.00000,   0.000
   209,   211,     0,'1 ',1,1,1, 0.00000E+0, 0.00000E+0,2,'            ',1,   1,1.0000
 2.00000E-3, 8.40000E-2,   100.00
1.00000,   0.000,   0.000,     0.00,     0.00,     0.00, 0,      0, 1.10000, 0.90000, 1.10000, 0.90000,  33, 0, 0.00000, 0.00000,  0.000
1.00000,   0.000
   209,   212,     0,'1 ',1,1,1, 0.00000E+0, 0.00000E+0,2,'            ',1,   1,1.0000
 2.00000E-3, 8.40000E-2,   100.00
1.00000,   0.000,   0.000,     0.00,     0.00,     0.00, 0,      0, 1.10000, 0.90000, 1.10000, 0.90000,  33, 0, 0.00000, 0.00000,  0.000
1.00000,   0.000
   210,   211,     0,'1 ',1,1,1, 0.00000E+0, 0.00000E+0,2,'            ',1,   1,1.0000
 2.00000E-3, 8.40000E-2,   100.00
1.00000,   0.000,   0.000,     0.00,     0.00,     0.00, 0,      0, 1.10000, 0.90000, 1.10000, 0.90000,  33, 0, 0.00000, 0.00000,  0.000
1.00000,   0.000
   210,   212,     0,'1 ',1,1,1, 0.00000E+0, 0.00000E+0,2,'            ',1,   1,1.0000
 2.00000E-3, 8.40000E-2,   100.00
1.00000,   0.000,   0.000,     0.00,     0.00,     0.00, 0,      0, 1.10000, 0.90000, 1.10000, 0.90000,  33, 0, 0.00000, 0.00000,  0.000
1.00000,   0.000
   303,   324,     0,'1 ',1,1,1, 0.00000E+0, 0.00000E+0,2,'            ',1,   1,1.0000
 2.00000E-3, 8.40000E-2,   100.00
1.00000,   0.000,   0.000,     0.00,     0.00,     0.00, 0,      0, 1.10000, 0.90000, 1.10000, 0.90000,  33, 0, 0.00000, 0.00000,  0.000
1.00000,   0.000
   309,   311,     0,'1 ',1,1,1, 0.00000E+0, 0.00000E+0,2,'            ',1,   1,1.0000
 2.00000E-3, 8.40000E-2,   100.00
1.00000,   0.000,   0.000,     0.00,     0.00,     0.00, 0,      0, 1.10000, 0.90000, 1.10000, 0.90000,  33, 0, 0.00000, 0.00000,  0.000
1.00000,   0.000
   309,   312,     0,'1 ',1,1,1, 0.00000E+0, 0.00000E+0,2,'            ',1,   1,1.0000
 2.00000E-3, 8.40000E-2,   100.00
1.00000,   0.000,   0.000,     0.00,     0.00,     0.00, 0,      0, 1.10000, 0.90000, 1.10000, 0.90000,  33, 0, 0.00000, 0.00000,  0.000
1.00000,   0.000
   310,   311,     0,'1 ',1,1,1, 0.00000E+0, 0.00000E+0,2,'            ',1,   1,1.0000
 2.00000E-3, 8.40000E-2,   100.00
1.00000,   0.000,   0.000,     0.00,     0.00,     0.00, 0,      0, 1.10000, 0.90000, 1.10000, 0.90000,  33, 0, 0.00000, 0.00000,  0.000
1.00000,   0.000
   310,   312,     0,'1 ',1,1,1, 0.00000E+0, 0.00000E+0,2,'            ',1,   1,1.0000
 2.00000E-3, 8.40000E-2,   100.00
1.00000,   0.000,   0.000,     0.00,     0.00,     0.00, 0,      0, 1.10000, 0.90000, 1.10000, 0.90000,  33, 0, 0.00000, 0.00000,  0.000
1.00000,   0.000
   323,   325,     0,'1 ',1,1,1, 0.00000E+0, 0.00000E+0,2,'            ',1,   1,1.0000
 0.00000E+0, 9.00000E-3,   100.00
1.00000,   0.000,   0.000,     0.00,     0.00,     0.00, 0,      0, 1.10000, 0.90000, 1.10000, 0.90000,  33, 0, 0.00000, 0.00000,  0.000
1.00000,   0.000
 0 /End of Transformer data, Begin Area interchange data
   1,     0,   250.000,    10.000,'WHAT        '
 0 /End of Area interchange data, Begin Two-terminal dc line data
 0 /End of Two-terminal dc line data, Begin VSC dc line data
 0 /End of VSC dc line data, Begin Impedance correction table data
 0 /End of Impedance correction table data, Begin Multi-terminal dc line data
 0 /End of Multi-terminal dc line data, Begin Multi-section line data
 0 /End of Multi-section line data, Begin Zone data
   1,'FIRST       '
 0 /End of Zone data, Begin Inter-area transfer data
 0 /End of Inter-area transfer data, Begin Owner data
   1,'TRAN 1      '
 0 /End of Owner data, Begin FACTS device data
 0 /End of FACTS device data, Begin Switched shunt data
 0 /End of Switched shunt data, Begin GNE device data
 0 /End of GNE device data
Q
